# written by c2x
data_c2x
_struct_title  fe4 ni2 o8

_cell_length_a      5.9657810
_cell_length_b      5.9657816
_cell_length_c      5.9657808
_cell_angle_alpha   120.0337510
_cell_angle_beta    119.9361385
_cell_angle_gamma   90.0261039


loop_
_atom_site_type_symbol
_atom_site_fract_x
_atom_site_fract_y
_atom_site_fract_z
_atom_site_U_iso_or_equiv
_atom_site_occupancy
Fe 0.1215200000 0.8715200000 0.2500000000 0.01 1.00
Fe 0.8784800000 0.1284800000 0.7500000000 0.01 1.00
Fe 0.5000000000 0.5000000000 0.0000000000 0.01 1.00
Fe 0.0000000000 0.5000000000 0.5000000000 0.01 1.00
Ni 0.5000000000 0.0000000000 0.0000000000 0.01 1.00
Ni 0.5000000000 0.5000000000 0.5000000000 0.01 1.00
O 0.2687440000 0.2602880000 0.0084550000 0.01 1.00
O 0.7474820000 0.2622090000 0.0147280000 0.01 1.00
O 0.7518330000 0.2602880000 0.4915450000 0.01 1.00
O 0.7474820000 0.7327540000 0.4852720000 0.01 1.00
O 0.2525180000 0.2672460000 0.5147280000 0.01 1.00
O 0.2481670000 0.7397120000 0.5084550000 0.01 1.00
O 0.2525180000 0.7377910000 0.9852720000 0.01 1.00
O 0.7312560000 0.7397120000 0.9915450000 0.01 1.00
